 ****** HSPICE -- A-2008.03 32-BIT (Feb 26 2008) winnt ******                   
  Copyright (C) 2008 Synopsys, Inc. All Rights Reserved.                        
  Unpublished-rights reserved under US copyright laws.
  This program is protected by law and is subject to the 
  terms and conditions of the license agreement found in:
    C:\synopsys\Hspice_A-2008.03\license.warn
  Use of this program is your acceptance to be bound by this 
  license agreement. HSPICE is the trademark of Synopsys, Inc.
  Input File: c:\users\abyan\documents\ut-962\vlsi\ca\ca1\part1_1.sp            
 Init: read install configuration file: C:\synopsys\Hspice_A-2008.03\meta.cfg
 Init: hspice initialization file: C:\synopsys\Hspice_A-2008.03\hspice.ini





 **** define patameters
 .param	lmin=32n
 +gnd=0
 .global	vdd
 .temp	25

 *********************source voltages**************
 vgs g gnd 0
 vds d gnd 0

 ******************not transistor level implementation****************
 m1 	g 		g 		gnd 	gnd 	nmos		w=1um	l=lmin
 m2	d	 	  d		vdd	vdd	pmos		w=1um	l=lmin
 *************type of analysis********
 .tran	0.1ns	2u

 .dc vgs -1 2 0.1* sweep vds -1 2 0.1

 .print dc i3(m1)
 .probe dc i3(m1)
 .end

 ***********************************************************************
 ** runlvl is invoked, you can disable it by:
      a) Add option runlvl=0 to your current simulation job.
      b) Copy $installdir/hspice.ini to your HOME directory and
         customize it by adding option runlvl=0, which disables
         it for all of your simulation jobs.
      c) Re-invoke $installdir/bin/config program and unselect the
         option runlvl setting in box 'hspice.ini' which disables
         it for whole group simulation jobs.

 ** runlvl is invoked, some options are ignored or automatically set:
      Options below are automatically set(user setting will overwrite them):
      if runlvl=6,            .option bypass=0
      if runlvl=[1|2|3|4|5],  .option bypass=2

      Options below are ignored, they are replaced by automated algorithms:
        lvltim    dvdt      ft    fast   trtol  absvar  relvar
          relq  chgtol    dvtr    imin    itl3    rmax

 ** runlvl is invoked, actual option value used by HSPICE are:
       runlvl= 3       bypass= 2      mbypass=   2.00   bytol= 100.00u
 ***********************************************************************

 ** warning** associated with encrypted blocks were suppressed

 
      
 ******  
 *** ali abyaneh dec ca1- part1********                                         
  ******  dc transfer curves               tnom=  25.000 temp=  25.000          
 ******  

   *** source        0:vds              =   -1.0000        ***

x

        volt    current 3  
                    m1     
   -1.00000      -3.6012n  
 -900.00000m     -2.2063n  
 -800.00000m     -1.3098n  
 -700.00000m   -749.1478p  
 -600.00000m   -398.0729p  
 -500.00000m   -198.2364p  
 -400.00000m    -93.5992p  
 -300.00000m    -41.6407p  
 -200.00000m    -17.2811p  
 -100.00000m     -6.5195p  
    0.            0.       
  100.00000m     43.2687p  
  200.00000m    824.9222p  
  300.00000m     15.0039n  
  400.00000m    246.6513n  
  500.00000m      3.1668u  
  600.00000m     26.5424u  
  700.00000m    108.0164u  
  800.00000m    238.7772u  
  900.00000m    388.3280u  
    1.00000     544.3635u  
    1.10000     703.3741u  
    1.20000     864.0267u  
    1.30000       1.0256m  
    1.40000       1.1876m  
    1.50000       1.3497m  
    1.60000       1.5117m  
    1.70000       1.6735m  
    1.80000       1.8349m  
    1.90000       1.9959m  
    2.00000       2.1564m  
y

          ***** job concluded
 ******  
 *** ali abyaneh dec ca1- part1********                                         
  ******  dc transfer curves               tnom=  25.000 temp=  25.000          
 ******  

   *** source        0:vds              = -900.0000m       ***

x

        volt    current 3  
                    m1     
   -1.00000      -3.6012n  
 -900.00000m     -2.2063n  
 -800.00000m     -1.3098n  
 -700.00000m   -749.1478p  
 -600.00000m   -398.0729p  
 -500.00000m   -198.2364p  
 -400.00000m    -93.5992p  
 -300.00000m    -41.6407p  
 -200.00000m    -17.2811p  
 -100.00000m     -6.5195p  
    0.            0.       
  100.00000m     43.2687p  
  200.00000m    824.9222p  
  300.00000m     15.0039n  
  400.00000m    246.6513n  
  500.00000m      3.1668u  
  600.00000m     26.5424u  
  700.00000m    108.0164u  
  800.00000m    238.7772u  
  900.00000m    388.3280u  
    1.00000     544.3635u  
    1.10000     703.3741u  
    1.20000     864.0267u  
    1.30000       1.0256m  
    1.40000       1.1876m  
    1.50000       1.3497m  
    1.60000       1.5117m  
    1.70000       1.6735m  
    1.80000       1.8349m  
    1.90000       1.9959m  
    2.00000       2.1564m  
y

          ***** job concluded
 ******  
 *** ali abyaneh dec ca1- part1********                                         
  ******  dc transfer curves               tnom=  25.000 temp=  25.000          
 ******  

   *** source        0:vds              = -800.0000m       ***

x

        volt    current 3  
                    m1     
   -1.00000      -3.6012n  
 -900.00000m     -2.2063n  
 -800.00000m     -1.3098n  
 -700.00000m   -749.1478p  
 -600.00000m   -398.0729p  
 -500.00000m   -198.2364p  
 -400.00000m    -93.5992p  
 -300.00000m    -41.6407p  
 -200.00000m    -17.2811p  
 -100.00000m     -6.5195p  
    0.            0.       
  100.00000m     43.2687p  
  200.00000m    824.9222p  
  300.00000m     15.0039n  
  400.00000m    246.6513n  
  500.00000m      3.1668u  
  600.00000m     26.5424u  
  700.00000m    108.0164u  
  800.00000m    238.7772u  
  900.00000m    388.3280u  
    1.00000     544.3635u  
    1.10000     703.3741u  
    1.20000     864.0267u  
    1.30000       1.0256m  
    1.40000       1.1876m  
    1.50000       1.3497m  
    1.60000       1.5117m  
    1.70000       1.6735m  
    1.80000       1.8349m  
    1.90000       1.9959m  
    2.00000       2.1564m  
y

          ***** job concluded
 ******  
 *** ali abyaneh dec ca1- part1********                                         
  ******  dc transfer curves               tnom=  25.000 temp=  25.000          
 ******  

   *** source        0:vds              = -700.0000m       ***

x

        volt    current 3  
                    m1     
   -1.00000      -3.6012n  
 -900.00000m     -2.2063n  
 -800.00000m     -1.3098n  
 -700.00000m   -749.1478p  
 -600.00000m   -398.0729p  
 -500.00000m   -198.2364p  
 -400.00000m    -93.5992p  
 -300.00000m    -41.6407p  
 -200.00000m    -17.2811p  
 -100.00000m     -6.5195p  
    0.            0.       
  100.00000m     43.2687p  
  200.00000m    824.9222p  
  300.00000m     15.0039n  
  400.00000m    246.6513n  
  500.00000m      3.1668u  
  600.00000m     26.5424u  
  700.00000m    108.0164u  
  800.00000m    238.7772u  
  900.00000m    388.3280u  
    1.00000     544.3635u  
    1.10000     703.3741u  
    1.20000     864.0267u  
    1.30000       1.0256m  
    1.40000       1.1876m  
    1.50000       1.3497m  
    1.60000       1.5117m  
    1.70000       1.6735m  
    1.80000       1.8349m  
    1.90000       1.9959m  
    2.00000       2.1564m  
y

          ***** job concluded
 ******  
 *** ali abyaneh dec ca1- part1********                                         
  ******  dc transfer curves               tnom=  25.000 temp=  25.000          
 ******  

   *** source        0:vds              = -600.0000m       ***

x

        volt    current 3  
                    m1     
   -1.00000      -3.6012n  
 -900.00000m     -2.2063n  
 -800.00000m     -1.3098n  
 -700.00000m   -749.1478p  
 -600.00000m   -398.0729p  
 -500.00000m   -198.2364p  
 -400.00000m    -93.5992p  
 -300.00000m    -41.6407p  
 -200.00000m    -17.2811p  
 -100.00000m     -6.5195p  
    0.            0.       
  100.00000m     43.2687p  
  200.00000m    824.9222p  
  300.00000m     15.0039n  
  400.00000m    246.6513n  
  500.00000m      3.1668u  
  600.00000m     26.5424u  
  700.00000m    108.0164u  
  800.00000m    238.7772u  
  900.00000m    388.3280u  
    1.00000     544.3635u  
    1.10000     703.3741u  
    1.20000     864.0267u  
    1.30000       1.0256m  
    1.40000       1.1876m  
    1.50000       1.3497m  
    1.60000       1.5117m  
    1.70000       1.6735m  
    1.80000       1.8349m  
    1.90000       1.9959m  
    2.00000       2.1564m  
y

          ***** job concluded
 ******  
 *** ali abyaneh dec ca1- part1********                                         
  ******  dc transfer curves               tnom=  25.000 temp=  25.000          
 ******  

   *** source        0:vds              = -500.0000m       ***

x

        volt    current 3  
                    m1     
   -1.00000      -3.6012n  
 -900.00000m     -2.2063n  
 -800.00000m     -1.3098n  
 -700.00000m   -749.1478p  
 -600.00000m   -398.0729p  
 -500.00000m   -198.2364p  
 -400.00000m    -93.5992p  
 -300.00000m    -41.6407p  
 -200.00000m    -17.2811p  
 -100.00000m     -6.5195p  
    0.            0.       
  100.00000m     43.2687p  
  200.00000m    824.9222p  
  300.00000m     15.0039n  
  400.00000m    246.6513n  
  500.00000m      3.1668u  
  600.00000m     26.5424u  
  700.00000m    108.0164u  
  800.00000m    238.7772u  
  900.00000m    388.3280u  
    1.00000     544.3635u  
    1.10000     703.3741u  
    1.20000     864.0267u  
    1.30000       1.0256m  
    1.40000       1.1876m  
    1.50000       1.3497m  
    1.60000       1.5117m  
    1.70000       1.6735m  
    1.80000       1.8349m  
    1.90000       1.9959m  
    2.00000       2.1564m  
y

          ***** job concluded
 ******  
 *** ali abyaneh dec ca1- part1********                                         
  ******  dc transfer curves               tnom=  25.000 temp=  25.000          
 ******  

   *** source        0:vds              = -400.0000m       ***

x

        volt    current 3  
                    m1     
   -1.00000      -3.6012n  
 -900.00000m     -2.2063n  
 -800.00000m     -1.3098n  
 -700.00000m   -749.1478p  
 -600.00000m   -398.0729p  
 -500.00000m   -198.2364p  
 -400.00000m    -93.5992p  
 -300.00000m    -41.6407p  
 -200.00000m    -17.2811p  
 -100.00000m     -6.5195p  
    0.            0.       
  100.00000m     43.2687p  
  200.00000m    824.9222p  
  300.00000m     15.0039n  
  400.00000m    246.6513n  
  500.00000m      3.1668u  
  600.00000m     26.5424u  
  700.00000m    108.0164u  
  800.00000m    238.7772u  
  900.00000m    388.3280u  
    1.00000     544.3635u  
    1.10000     703.3741u  
    1.20000     864.0267u  
    1.30000       1.0256m  
    1.40000       1.1876m  
    1.50000       1.3497m  
    1.60000       1.5117m  
    1.70000       1.6735m  
    1.80000       1.8349m  
    1.90000       1.9959m  
    2.00000       2.1564m  
y

          ***** job concluded
 ******  
 *** ali abyaneh dec ca1- part1********                                         
  ******  dc transfer curves               tnom=  25.000 temp=  25.000          
 ******  

   *** source        0:vds              = -300.0000m       ***

x

        volt    current 3  
                    m1     
   -1.00000      -3.6012n  
 -900.00000m     -2.2063n  
 -800.00000m     -1.3098n  
 -700.00000m   -749.1478p  
 -600.00000m   -398.0729p  
 -500.00000m   -198.2364p  
 -400.00000m    -93.5992p  
 -300.00000m    -41.6407p  
 -200.00000m    -17.2811p  
 -100.00000m     -6.5195p  
    0.            0.       
  100.00000m     43.2687p  
  200.00000m    824.9222p  
  300.00000m     15.0039n  
  400.00000m    246.6513n  
  500.00000m      3.1668u  
  600.00000m     26.5424u  
  700.00000m    108.0164u  
  800.00000m    238.7772u  
  900.00000m    388.3280u  
    1.00000     544.3635u  
    1.10000     703.3741u  
    1.20000     864.0267u  
    1.30000       1.0256m  
    1.40000       1.1876m  
    1.50000       1.3497m  
    1.60000       1.5117m  
    1.70000       1.6735m  
    1.80000       1.8349m  
    1.90000       1.9959m  
    2.00000       2.1564m  
y

          ***** job concluded
 ******  
 *** ali abyaneh dec ca1- part1********                                         
  ******  dc transfer curves               tnom=  25.000 temp=  25.000          
 ******  

   *** source        0:vds              = -200.0000m       ***

x

        volt    current 3  
                    m1     
   -1.00000      -3.6012n  
 -900.00000m     -2.2063n  
 -800.00000m     -1.3098n  
 -700.00000m   -749.1478p  
 -600.00000m   -398.0729p  
 -500.00000m   -198.2364p  
 -400.00000m    -93.5992p  
 -300.00000m    -41.6407p  
 -200.00000m    -17.2811p  
 -100.00000m     -6.5195p  
    0.            0.       
  100.00000m     43.2687p  
  200.00000m    824.9222p  
  300.00000m     15.0039n  
  400.00000m    246.6513n  
  500.00000m      3.1668u  
  600.00000m     26.5424u  
  700.00000m    108.0164u  
  800.00000m    238.7772u  
  900.00000m    388.3280u  
    1.00000     544.3635u  
    1.10000     703.3741u  
    1.20000     864.0267u  
    1.30000       1.0256m  
    1.40000       1.1876m  
    1.50000       1.3497m  
    1.60000       1.5117m  
    1.70000       1.6735m  
    1.80000       1.8349m  
    1.90000       1.9959m  
    2.00000       2.1564m  
y

          ***** job concluded
 ******  
 *** ali abyaneh dec ca1- part1********                                         
  ******  dc transfer curves               tnom=  25.000 temp=  25.000          
 ******  

   *** source        0:vds              = -100.0000m       ***

x

        volt    current 3  
                    m1     
   -1.00000      -3.6012n  
 -900.00000m     -2.2063n  
 -800.00000m     -1.3098n  
 -700.00000m   -749.1478p  
 -600.00000m   -398.0729p  
 -500.00000m   -198.2364p  
 -400.00000m    -93.5992p  
 -300.00000m    -41.6407p  
 -200.00000m    -17.2811p  
 -100.00000m     -6.5195p  
    0.            0.       
  100.00000m     43.2687p  
  200.00000m    824.9222p  
  300.00000m     15.0039n  
  400.00000m    246.6513n  
  500.00000m      3.1668u  
  600.00000m     26.5424u  
  700.00000m    108.0164u  
  800.00000m    238.7772u  
  900.00000m    388.3280u  
    1.00000     544.3635u  
    1.10000     703.3741u  
    1.20000     864.0267u  
    1.30000       1.0256m  
    1.40000       1.1876m  
    1.50000       1.3497m  
    1.60000       1.5117m  
    1.70000       1.6735m  
    1.80000       1.8349m  
    1.90000       1.9959m  
    2.00000       2.1564m  
y

          ***** job concluded
 ******  
 *** ali abyaneh dec ca1- part1********                                         
  ******  dc transfer curves               tnom=  25.000 temp=  25.000          
 ******  

   *** source        0:vds              =    0.            ***

x

        volt    current 3  
                    m1     
   -1.00000      -3.6012n  
 -900.00000m     -2.2063n  
 -800.00000m     -1.3098n  
 -700.00000m   -749.1478p  
 -600.00000m   -398.0729p  
 -500.00000m   -198.2364p  
 -400.00000m    -93.5992p  
 -300.00000m    -41.6407p  
 -200.00000m    -17.2811p  
 -100.00000m     -6.5195p  
    0.            0.       
  100.00000m     43.2687p  
  200.00000m    824.9222p  
  300.00000m     15.0039n  
  400.00000m    246.6513n  
  500.00000m      3.1668u  
  600.00000m     26.5424u  
  700.00000m    108.0164u  
  800.00000m    238.7772u  
  900.00000m    388.3280u  
    1.00000     544.3635u  
    1.10000     703.3741u  
    1.20000     864.0267u  
    1.30000       1.0256m  
    1.40000       1.1876m  
    1.50000       1.3497m  
    1.60000       1.5117m  
    1.70000       1.6735m  
    1.80000       1.8349m  
    1.90000       1.9959m  
    2.00000       2.1564m  
y

          ***** job concluded
 ******  
 *** ali abyaneh dec ca1- part1********                                         
  ******  dc transfer curves               tnom=  25.000 temp=  25.000          
 ******  

   *** source        0:vds              =  100.0000m       ***

x

        volt    current 3  
                    m1     
   -1.00000      -3.6012n  
 -900.00000m     -2.2063n  
 -800.00000m     -1.3098n  
 -700.00000m   -749.1478p  
 -600.00000m   -398.0729p  
 -500.00000m   -198.2364p  
 -400.00000m    -93.5992p  
 -300.00000m    -41.6407p  
 -200.00000m    -17.2811p  
 -100.00000m     -6.5195p  
    0.            0.       
  100.00000m     43.2687p  
  200.00000m    824.9222p  
  300.00000m     15.0039n  
  400.00000m    246.6513n  
  500.00000m      3.1668u  
  600.00000m     26.5424u  
  700.00000m    108.0164u  
  800.00000m    238.7772u  
  900.00000m    388.3280u  
    1.00000     544.3635u  
    1.10000     703.3741u  
    1.20000     864.0267u  
    1.30000       1.0256m  
    1.40000       1.1876m  
    1.50000       1.3497m  
    1.60000       1.5117m  
    1.70000       1.6735m  
    1.80000       1.8349m  
    1.90000       1.9959m  
    2.00000       2.1564m  
y

          ***** job concluded
 ******  
 *** ali abyaneh dec ca1- part1********                                         
  ******  dc transfer curves               tnom=  25.000 temp=  25.000          
 ******  

   *** source        0:vds              =  200.0000m       ***

x

        volt    current 3  
                    m1     
   -1.00000      -3.6012n  
 -900.00000m     -2.2063n  
 -800.00000m     -1.3098n  
 -700.00000m   -749.1478p  
 -600.00000m   -398.0729p  
 -500.00000m   -198.2364p  
 -400.00000m    -93.5992p  
 -300.00000m    -41.6407p  
 -200.00000m    -17.2811p  
 -100.00000m     -6.5195p  
    0.            0.       
  100.00000m     43.2687p  
  200.00000m    824.9222p  
  300.00000m     15.0039n  
  400.00000m    246.6513n  
  500.00000m      3.1668u  
  600.00000m     26.5424u  
  700.00000m    108.0164u  
  800.00000m    238.7772u  
  900.00000m    388.3280u  
    1.00000     544.3635u  
    1.10000     703.3741u  
    1.20000     864.0267u  
    1.30000       1.0256m  
    1.40000       1.1876m  
    1.50000       1.3497m  
    1.60000       1.5117m  
    1.70000       1.6735m  
    1.80000       1.8349m  
    1.90000       1.9959m  
    2.00000       2.1564m  
y

          ***** job concluded
 ******  
 *** ali abyaneh dec ca1- part1********                                         
  ******  dc transfer curves               tnom=  25.000 temp=  25.000          
 ******  

   *** source        0:vds              =  300.0000m       ***

x

        volt    current 3  
                    m1     
   -1.00000      -3.6012n  
 -900.00000m     -2.2063n  
 -800.00000m     -1.3098n  
 -700.00000m   -749.1478p  
 -600.00000m   -398.0729p  
 -500.00000m   -198.2364p  
 -400.00000m    -93.5992p  
 -300.00000m    -41.6407p  
 -200.00000m    -17.2811p  
 -100.00000m     -6.5195p  
    0.            0.       
  100.00000m     43.2687p  
  200.00000m    824.9222p  
  300.00000m     15.0039n  
  400.00000m    246.6513n  
  500.00000m      3.1668u  
  600.00000m     26.5424u  
  700.00000m    108.0164u  
  800.00000m    238.7772u  
  900.00000m    388.3280u  
    1.00000     544.3635u  
    1.10000     703.3741u  
    1.20000     864.0267u  
    1.30000       1.0256m  
    1.40000       1.1876m  
    1.50000       1.3497m  
    1.60000       1.5117m  
    1.70000       1.6735m  
    1.80000       1.8349m  
    1.90000       1.9959m  
    2.00000       2.1564m  
y

          ***** job concluded
 ******  
 *** ali abyaneh dec ca1- part1********                                         
  ******  dc transfer curves               tnom=  25.000 temp=  25.000          
 ******  

   *** source        0:vds              =  400.0000m       ***

x

        volt    current 3  
                    m1     
   -1.00000      -3.6012n  
 -900.00000m     -2.2063n  
 -800.00000m     -1.3098n  
 -700.00000m   -749.1478p  
 -600.00000m   -398.0729p  
 -500.00000m   -198.2364p  
 -400.00000m    -93.5992p  
 -300.00000m    -41.6407p  
 -200.00000m    -17.2811p  
 -100.00000m     -6.5195p  
    0.            0.       
  100.00000m     43.2687p  
  200.00000m    824.9222p  
  300.00000m     15.0039n  
  400.00000m    246.6513n  
  500.00000m      3.1668u  
  600.00000m     26.5424u  
  700.00000m    108.0164u  
  800.00000m    238.7772u  
  900.00000m    388.3280u  
    1.00000     544.3635u  
    1.10000     703.3741u  
    1.20000     864.0267u  
    1.30000       1.0256m  
    1.40000       1.1876m  
    1.50000       1.3497m  
    1.60000       1.5117m  
    1.70000       1.6735m  
    1.80000       1.8349m  
    1.90000       1.9959m  
    2.00000       2.1564m  
y

          ***** job concluded
 ******  
 *** ali abyaneh dec ca1- part1********                                         
  ******  dc transfer curves               tnom=  25.000 temp=  25.000          
 ******  

   *** source        0:vds              =  500.0000m       ***

x

        volt    current 3  
                    m1     
   -1.00000      -3.6012n  
 -900.00000m     -2.2063n  
 -800.00000m     -1.3098n  
 -700.00000m   -749.1478p  
 -600.00000m   -398.0729p  
 -500.00000m   -198.2364p  
 -400.00000m    -93.5992p  
 -300.00000m    -41.6407p  
 -200.00000m    -17.2811p  
 -100.00000m     -6.5195p  
    0.            0.       
  100.00000m     43.2687p  
  200.00000m    824.9222p  
  300.00000m     15.0039n  
  400.00000m    246.6513n  
  500.00000m      3.1668u  
  600.00000m     26.5424u  
  700.00000m    108.0164u  
  800.00000m    238.7772u  
  900.00000m    388.3280u  
    1.00000     544.3635u  
    1.10000     703.3741u  
    1.20000     864.0267u  
    1.30000       1.0256m  
    1.40000       1.1876m  
    1.50000       1.3497m  
    1.60000       1.5117m  
    1.70000       1.6735m  
    1.80000       1.8349m  
    1.90000       1.9959m  
    2.00000       2.1564m  
y

          ***** job concluded
 ******  
 *** ali abyaneh dec ca1- part1********                                         
  ******  dc transfer curves               tnom=  25.000 temp=  25.000          
 ******  

   *** source        0:vds              =  600.0000m       ***

x

        volt    current 3  
                    m1     
   -1.00000      -3.6012n  
 -900.00000m     -2.2063n  
 -800.00000m     -1.3098n  
 -700.00000m   -749.1478p  
 -600.00000m   -398.0729p  
 -500.00000m   -198.2364p  
 -400.00000m    -93.5992p  
 -300.00000m    -41.6407p  
 -200.00000m    -17.2811p  
 -100.00000m     -6.5195p  
    0.            0.       
  100.00000m     43.2687p  
  200.00000m    824.9222p  
  300.00000m     15.0039n  
  400.00000m    246.6513n  
  500.00000m      3.1668u  
  600.00000m     26.5424u  
  700.00000m    108.0164u  
  800.00000m    238.7772u  
  900.00000m    388.3280u  
    1.00000     544.3635u  
    1.10000     703.3741u  
    1.20000     864.0267u  
    1.30000       1.0256m  
    1.40000       1.1876m  
    1.50000       1.3497m  
    1.60000       1.5117m  
    1.70000       1.6735m  
    1.80000       1.8349m  
    1.90000       1.9959m  
    2.00000       2.1564m  
y

          ***** job concluded
 ******  
 *** ali abyaneh dec ca1- part1********                                         
  ******  dc transfer curves               tnom=  25.000 temp=  25.000          
 ******  

   *** source        0:vds              =  700.0000m       ***

x

        volt    current 3  
                    m1     
   -1.00000      -3.6012n  
 -900.00000m     -2.2063n  
 -800.00000m     -1.3098n  
 -700.00000m   -749.1478p  
 -600.00000m   -398.0729p  
 -500.00000m   -198.2364p  
 -400.00000m    -93.5992p  
 -300.00000m    -41.6407p  
 -200.00000m    -17.2811p  
 -100.00000m     -6.5195p  
    0.            0.       
  100.00000m     43.2687p  
  200.00000m    824.9222p  
  300.00000m     15.0039n  
  400.00000m    246.6513n  
  500.00000m      3.1668u  
  600.00000m     26.5424u  
  700.00000m    108.0164u  
  800.00000m    238.7772u  
  900.00000m    388.3280u  
    1.00000     544.3635u  
    1.10000     703.3741u  
    1.20000     864.0267u  
    1.30000       1.0256m  
    1.40000       1.1876m  
    1.50000       1.3497m  
    1.60000       1.5117m  
    1.70000       1.6735m  
    1.80000       1.8349m  
    1.90000       1.9959m  
    2.00000       2.1564m  
y

          ***** job concluded
 ******  
 *** ali abyaneh dec ca1- part1********                                         
  ******  dc transfer curves               tnom=  25.000 temp=  25.000          
 ******  

   *** source        0:vds              =  800.0000m       ***

x

        volt    current 3  
                    m1     
   -1.00000      -3.6012n  
 -900.00000m     -2.2063n  
 -800.00000m     -1.3098n  
 -700.00000m   -749.1478p  
 -600.00000m   -398.0729p  
 -500.00000m   -198.2364p  
 -400.00000m    -93.5992p  
 -300.00000m    -41.6407p  
 -200.00000m    -17.2811p  
 -100.00000m     -6.5195p  
    0.            0.       
  100.00000m     43.2687p  
  200.00000m    824.9222p  
  300.00000m     15.0039n  
  400.00000m    246.6513n  
  500.00000m      3.1668u  
  600.00000m     26.5424u  
  700.00000m    108.0164u  
  800.00000m    238.7772u  
  900.00000m    388.3280u  
    1.00000     544.3635u  
    1.10000     703.3741u  
    1.20000     864.0267u  
    1.30000       1.0256m  
    1.40000       1.1876m  
    1.50000       1.3497m  
    1.60000       1.5117m  
    1.70000       1.6735m  
    1.80000       1.8349m  
    1.90000       1.9959m  
    2.00000       2.1564m  
y

          ***** job concluded
 ******  
 *** ali abyaneh dec ca1- part1********                                         
  ******  dc transfer curves               tnom=  25.000 temp=  25.000          
 ******  

   *** source        0:vds              =  900.0000m       ***

x

        volt    current 3  
                    m1     
   -1.00000      -3.6012n  
 -900.00000m     -2.2063n  
 -800.00000m     -1.3098n  
 -700.00000m   -749.1478p  
 -600.00000m   -398.0729p  
 -500.00000m   -198.2364p  
 -400.00000m    -93.5992p  
 -300.00000m    -41.6407p  
 -200.00000m    -17.2811p  
 -100.00000m     -6.5195p  
    0.            0.       
  100.00000m     43.2687p  
  200.00000m    824.9222p  
  300.00000m     15.0039n  
  400.00000m    246.6513n  
  500.00000m      3.1668u  
  600.00000m     26.5424u  
  700.00000m    108.0164u  
  800.00000m    238.7772u  
  900.00000m    388.3280u  
    1.00000     544.3635u  
    1.10000     703.3741u  
    1.20000     864.0267u  
    1.30000       1.0256m  
    1.40000       1.1876m  
    1.50000       1.3497m  
    1.60000       1.5117m  
    1.70000       1.6735m  
    1.80000       1.8349m  
    1.90000       1.9959m  
    2.00000       2.1564m  
y

          ***** job concluded
 ******  
 *** ali abyaneh dec ca1- part1********                                         
  ******  dc transfer curves               tnom=  25.000 temp=  25.000          
 ******  

   *** source        0:vds              =    1.0000        ***

x

        volt    current 3  
                    m1     
   -1.00000      -3.6012n  
 -900.00000m     -2.2063n  
 -800.00000m     -1.3098n  
 -700.00000m   -749.1478p  
 -600.00000m   -398.0729p  
 -500.00000m   -198.2364p  
 -400.00000m    -93.5992p  
 -300.00000m    -41.6407p  
 -200.00000m    -17.2811p  
 -100.00000m     -6.5195p  
    0.            0.       
  100.00000m     43.2687p  
  200.00000m    824.9222p  
  300.00000m     15.0039n  
  400.00000m    246.6513n  
  500.00000m      3.1668u  
  600.00000m     26.5424u  
  700.00000m    108.0164u  
  800.00000m    238.7772u  
  900.00000m    388.3280u  
    1.00000     544.3635u  
    1.10000     703.3741u  
    1.20000     864.0267u  
    1.30000       1.0256m  
    1.40000       1.1876m  
    1.50000       1.3497m  
    1.60000       1.5117m  
    1.70000       1.6735m  
    1.80000       1.8349m  
    1.90000       1.9959m  
    2.00000       2.1564m  
y

          ***** job concluded
 ******  
 *** ali abyaneh dec ca1- part1********                                         
  ******  dc transfer curves               tnom=  25.000 temp=  25.000          
 ******  

   *** source        0:vds              =    1.1000        ***

x

        volt    current 3  
                    m1     
   -1.00000      -3.6012n  
 -900.00000m     -2.2063n  
 -800.00000m     -1.3098n  
 -700.00000m   -749.1478p  
 -600.00000m   -398.0729p  
 -500.00000m   -198.2364p  
 -400.00000m    -93.5992p  
 -300.00000m    -41.6407p  
 -200.00000m    -17.2811p  
 -100.00000m     -6.5195p  
    0.            0.       
  100.00000m     43.2687p  
  200.00000m    824.9222p  
  300.00000m     15.0039n  
  400.00000m    246.6513n  
  500.00000m      3.1668u  
  600.00000m     26.5424u  
  700.00000m    108.0164u  
  800.00000m    238.7772u  
  900.00000m    388.3280u  
    1.00000     544.3635u  
    1.10000     703.3741u  
    1.20000     864.0267u  
    1.30000       1.0256m  
    1.40000       1.1876m  
    1.50000       1.3497m  
    1.60000       1.5117m  
    1.70000       1.6735m  
    1.80000       1.8349m  
    1.90000       1.9959m  
    2.00000       2.1564m  
y

          ***** job concluded
 ******  
 *** ali abyaneh dec ca1- part1********                                         
  ******  dc transfer curves               tnom=  25.000 temp=  25.000          
 ******  

   *** source        0:vds              =    1.2000        ***

x

        volt    current 3  
                    m1     
   -1.00000      -3.6012n  
 -900.00000m     -2.2063n  
 -800.00000m     -1.3098n  
 -700.00000m   -749.1478p  
 -600.00000m   -398.0729p  
 -500.00000m   -198.2364p  
 -400.00000m    -93.5992p  
 -300.00000m    -41.6407p  
 -200.00000m    -17.2811p  
 -100.00000m     -6.5195p  
    0.            0.       
  100.00000m     43.2687p  
  200.00000m    824.9222p  
  300.00000m     15.0039n  
  400.00000m    246.6513n  
  500.00000m      3.1668u  
  600.00000m     26.5424u  
  700.00000m    108.0164u  
  800.00000m    238.7772u  
  900.00000m    388.3280u  
    1.00000     544.3635u  
    1.10000     703.3741u  
    1.20000     864.0267u  
    1.30000       1.0256m  
    1.40000       1.1876m  
    1.50000       1.3497m  
    1.60000       1.5117m  
    1.70000       1.6735m  
    1.80000       1.8349m  
    1.90000       1.9959m  
    2.00000       2.1564m  
y

          ***** job concluded
 ******  
 *** ali abyaneh dec ca1- part1********                                         
  ******  dc transfer curves               tnom=  25.000 temp=  25.000          
 ******  

   *** source        0:vds              =    1.3000        ***

x

        volt    current 3  
                    m1     
   -1.00000      -3.6012n  
 -900.00000m     -2.2063n  
 -800.00000m     -1.3098n  
 -700.00000m   -749.1478p  
 -600.00000m   -398.0729p  
 -500.00000m   -198.2364p  
 -400.00000m    -93.5992p  
 -300.00000m    -41.6407p  
 -200.00000m    -17.2811p  
 -100.00000m     -6.5195p  
    0.            0.       
  100.00000m     43.2687p  
  200.00000m    824.9222p  
  300.00000m     15.0039n  
  400.00000m    246.6513n  
  500.00000m      3.1668u  
  600.00000m     26.5424u  
  700.00000m    108.0164u  
  800.00000m    238.7772u  
  900.00000m    388.3280u  
    1.00000     544.3635u  
    1.10000     703.3741u  
    1.20000     864.0267u  
    1.30000       1.0256m  
    1.40000       1.1876m  
    1.50000       1.3497m  
    1.60000       1.5117m  
    1.70000       1.6735m  
    1.80000       1.8349m  
    1.90000       1.9959m  
    2.00000       2.1564m  
y

          ***** job concluded
 ******  
 *** ali abyaneh dec ca1- part1********                                         
  ******  dc transfer curves               tnom=  25.000 temp=  25.000          
 ******  

   *** source        0:vds              =    1.4000        ***

x

        volt    current 3  
                    m1     
   -1.00000      -3.6012n  
 -900.00000m     -2.2063n  
 -800.00000m     -1.3098n  
 -700.00000m   -749.1478p  
 -600.00000m   -398.0729p  
 -500.00000m   -198.2364p  
 -400.00000m    -93.5992p  
 -300.00000m    -41.6407p  
 -200.00000m    -17.2811p  
 -100.00000m     -6.5195p  
    0.            0.       
  100.00000m     43.2687p  
  200.00000m    824.9222p  
  300.00000m     15.0039n  
  400.00000m    246.6513n  
  500.00000m      3.1668u  
  600.00000m     26.5424u  
  700.00000m    108.0164u  
  800.00000m    238.7772u  
  900.00000m    388.3280u  
    1.00000     544.3635u  
    1.10000     703.3741u  
    1.20000     864.0267u  
    1.30000       1.0256m  
    1.40000       1.1876m  
    1.50000       1.3497m  
    1.60000       1.5117m  
    1.70000       1.6735m  
    1.80000       1.8349m  
    1.90000       1.9959m  
    2.00000       2.1564m  
y

          ***** job concluded
 ******  
 *** ali abyaneh dec ca1- part1********                                         
  ******  dc transfer curves               tnom=  25.000 temp=  25.000          
 ******  

   *** source        0:vds              =    1.5000        ***

x

        volt    current 3  
                    m1     
   -1.00000      -3.6012n  
 -900.00000m     -2.2063n  
 -800.00000m     -1.3098n  
 -700.00000m   -749.1478p  
 -600.00000m   -398.0729p  
 -500.00000m   -198.2364p  
 -400.00000m    -93.5992p  
 -300.00000m    -41.6407p  
 -200.00000m    -17.2811p  
 -100.00000m     -6.5195p  
    0.            0.       
  100.00000m     43.2687p  
  200.00000m    824.9222p  
  300.00000m     15.0039n  
  400.00000m    246.6513n  
  500.00000m      3.1668u  
  600.00000m     26.5424u  
  700.00000m    108.0164u  
  800.00000m    238.7772u  
  900.00000m    388.3280u  
    1.00000     544.3635u  
    1.10000     703.3741u  
    1.20000     864.0267u  
    1.30000       1.0256m  
    1.40000       1.1876m  
    1.50000       1.3497m  
    1.60000       1.5117m  
    1.70000       1.6735m  
    1.80000       1.8349m  
    1.90000       1.9959m  
    2.00000       2.1564m  
y

          ***** job concluded
 ******  
 *** ali abyaneh dec ca1- part1********                                         
  ******  dc transfer curves               tnom=  25.000 temp=  25.000          
 ******  

   *** source        0:vds              =    1.6000        ***

x

        volt    current 3  
                    m1     
   -1.00000      -3.6012n  
 -900.00000m     -2.2063n  
 -800.00000m     -1.3098n  
 -700.00000m   -749.1478p  
 -600.00000m   -398.0729p  
 -500.00000m   -198.2364p  
 -400.00000m    -93.5992p  
 -300.00000m    -41.6407p  
 -200.00000m    -17.2811p  
 -100.00000m     -6.5195p  
    0.            0.       
  100.00000m     43.2687p  
  200.00000m    824.9222p  
  300.00000m     15.0039n  
  400.00000m    246.6513n  
  500.00000m      3.1668u  
  600.00000m     26.5424u  
  700.00000m    108.0164u  
  800.00000m    238.7772u  
  900.00000m    388.3280u  
    1.00000     544.3635u  
    1.10000     703.3741u  
    1.20000     864.0267u  
    1.30000       1.0256m  
    1.40000       1.1876m  
    1.50000       1.3497m  
    1.60000       1.5117m  
    1.70000       1.6735m  
    1.80000       1.8349m  
    1.90000       1.9959m  
    2.00000       2.1564m  
y

          ***** job concluded
 ******  
 *** ali abyaneh dec ca1- part1********                                         
  ******  dc transfer curves               tnom=  25.000 temp=  25.000          
 ******  

   *** source        0:vds              =    1.7000        ***

x

        volt    current 3  
                    m1     
   -1.00000      -3.6012n  
 -900.00000m     -2.2063n  
 -800.00000m     -1.3098n  
 -700.00000m   -749.1478p  
 -600.00000m   -398.0729p  
 -500.00000m   -198.2364p  
 -400.00000m    -93.5992p  
 -300.00000m    -41.6407p  
 -200.00000m    -17.2811p  
 -100.00000m     -6.5195p  
    0.            0.       
  100.00000m     43.2687p  
  200.00000m    824.9222p  
  300.00000m     15.0039n  
  400.00000m    246.6513n  
  500.00000m      3.1668u  
  600.00000m     26.5424u  
  700.00000m    108.0164u  
  800.00000m    238.7772u  
  900.00000m    388.3280u  
    1.00000     544.3635u  
    1.10000     703.3741u  
    1.20000     864.0267u  
    1.30000       1.0256m  
    1.40000       1.1876m  
    1.50000       1.3497m  
    1.60000       1.5117m  
    1.70000       1.6735m  
    1.80000       1.8349m  
    1.90000       1.9959m  
    2.00000       2.1564m  
y

          ***** job concluded
 ******  
 *** ali abyaneh dec ca1- part1********                                         
  ******  dc transfer curves               tnom=  25.000 temp=  25.000          
 ******  

   *** source        0:vds              =    1.8000        ***

x

        volt    current 3  
                    m1     
   -1.00000      -3.6012n  
 -900.00000m     -2.2063n  
 -800.00000m     -1.3098n  
 -700.00000m   -749.1478p  
 -600.00000m   -398.0729p  
 -500.00000m   -198.2364p  
 -400.00000m    -93.5992p  
 -300.00000m    -41.6407p  
 -200.00000m    -17.2811p  
 -100.00000m     -6.5195p  
    0.            0.       
  100.00000m     43.2687p  
  200.00000m    824.9222p  
  300.00000m     15.0039n  
  400.00000m    246.6513n  
  500.00000m      3.1668u  
  600.00000m     26.5424u  
  700.00000m    108.0164u  
  800.00000m    238.7772u  
  900.00000m    388.3280u  
    1.00000     544.3635u  
    1.10000     703.3741u  
    1.20000     864.0267u  
    1.30000       1.0256m  
    1.40000       1.1876m  
    1.50000       1.3497m  
    1.60000       1.5117m  
    1.70000       1.6735m  
    1.80000       1.8349m  
    1.90000       1.9959m  
    2.00000       2.1564m  
y

          ***** job concluded
 ******  
 *** ali abyaneh dec ca1- part1********                                         
  ******  dc transfer curves               tnom=  25.000 temp=  25.000          
 ******  

   *** source        0:vds              =    1.9000        ***

x

        volt    current 3  
                    m1     
   -1.00000      -3.6012n  
 -900.00000m     -2.2063n  
 -800.00000m     -1.3098n  
 -700.00000m   -749.1478p  
 -600.00000m   -398.0729p  
 -500.00000m   -198.2364p  
 -400.00000m    -93.5992p  
 -300.00000m    -41.6407p  
 -200.00000m    -17.2811p  
 -100.00000m     -6.5195p  
    0.            0.       
  100.00000m     43.2687p  
  200.00000m    824.9222p  
  300.00000m     15.0039n  
  400.00000m    246.6513n  
  500.00000m      3.1668u  
  600.00000m     26.5424u  
  700.00000m    108.0164u  
  800.00000m    238.7772u  
  900.00000m    388.3280u  
    1.00000     544.3635u  
    1.10000     703.3741u  
    1.20000     864.0267u  
    1.30000       1.0256m  
    1.40000       1.1876m  
    1.50000       1.3497m  
    1.60000       1.5117m  
    1.70000       1.6735m  
    1.80000       1.8349m  
    1.90000       1.9959m  
    2.00000       2.1564m  
y

          ***** job concluded
 ******  
 *** ali abyaneh dec ca1- part1********                                         
  ******  dc transfer curves               tnom=  25.000 temp=  25.000          
 ******  

   *** source        0:vds              =    2.0000        ***

x

        volt    current 3  
                    m1     
   -1.00000      -3.6012n  
 -900.00000m     -2.2063n  
 -800.00000m     -1.3098n  
 -700.00000m   -749.1478p  
 -600.00000m   -398.0729p  
 -500.00000m   -198.2364p  
 -400.00000m    -93.5992p  
 -300.00000m    -41.6407p  
 -200.00000m    -17.2811p  
 -100.00000m     -6.5195p  
    0.            0.       
  100.00000m     43.2687p  
  200.00000m    824.9222p  
  300.00000m     15.0039n  
  400.00000m    246.6513n  
  500.00000m      3.1668u  
  600.00000m     26.5424u  
  700.00000m    108.0164u  
  800.00000m    238.7772u  
  900.00000m    388.3280u  
    1.00000     544.3635u  
    1.10000     703.3741u  
    1.20000     864.0267u  
    1.30000       1.0256m  
    1.40000       1.1876m  
    1.50000       1.3497m  
    1.60000       1.5117m  
    1.70000       1.6735m  
    1.80000       1.8349m  
    1.90000       1.9959m  
    2.00000       2.1564m  
y
 
1****** HSPICE -- A-2008.03 32-BIT (Feb 26 2008) winnt ******                   
 ******  
 *** ali abyaneh dec ca1- part1********                                         
  ******  operating point information      tnom=  25.000 temp=  25.000          
 ******  
 ***** operating point status is voltage   simulation time is     0.     
    node    =voltage      node    =voltage      node    =voltage

 +0:d       =   0.      0:g       =   0.      0:vdd     =   0.     


          ***** job concluded
1****** HSPICE -- A-2008.03 32-BIT (Feb 26 2008) winnt ******                   
 ******  
 *** ali abyaneh dec ca1- part1********                                         
  ******  job statistics summary           tnom=  25.000 temp=  25.000          
 ******  

           total memory used        161 kbytes

  # nodes =      13 # elements=       5
  # diodes=       0 # bjts    =       0 # jfets   =       0 # mosfets =       2
  # va device =       0

    analysis           time    # points   tot. iter  conv.iter

    op point           0.02           1           3
    dc sweep           0.44         961        3224
    transient          0.06       20001          56          28 rev=         0
    readin             0.01
    errchk             0.00
    setup              0.00
    output             0.00
           total cpu time          1.00 seconds
           total elapsed time         1 seconds
               job started at  16:02:57 03/20/2018
               job ended   at  16:02:58 03/20/2018


 Init: hspice initialization file: C:\synopsys\Hspice_A-2008.03\hspice.ini
