 ****** HSPICE -- A-2008.03 32-BIT (Feb 26 2008) winnt ******                   
  Copyright (C) 2008 Synopsys, Inc. All Rights Reserved.                        
  Unpublished-rights reserved under US copyright laws.
  This program is protected by law and is subject to the 
  terms and conditions of the license agreement found in:
    C:\synopsys\Hspice_A-2008.03\license.warn
  Use of this program is your acceptance to be bound by this 
  license agreement. HSPICE is the trademark of Synopsys, Inc.
  Input File: c:\users\abyan\documents\ut-962\vlsi\ca\ca1\pmos\part1.sp         
 Init: read install configuration file: C:\synopsys\Hspice_A-2008.03\meta.cfg
 Init: hspice initialization file: C:\synopsys\Hspice_A-2008.03\hspice.ini




  **warning** (32nm_LP.pm:4)  associated with encrypted blocks were suppressed due to encrypted content

 **** define patameters
 .param	lmin=32n
 +vdd=	1.1v
 +gnd=0
 .global	vdd
 .temp	25

 *********************source voltages**************
 v	vdd	gnd	dc	vdd
 vgs g gnd 0
 vds d gnd 0

 ******************not transistor level implementation****************
 *m1 	g 		g 		gnd 	gnd 	nmos		w=1um	l=lmin
 m2	d	 	  d		vdd	vdd	pmos		w=1um	l=lmin
 *************type of analysis********
 .tran	0.1ns	2u

 .dc vds -1 2 0.1 sweep vgs -1 2 0.1

 .print dc i3(m2)
 .probe dc i3(m2)
 .end

 ***********************************************************************
 ** runlvl is invoked, you can disable it by:
      a) Add option runlvl=0 to your current simulation job.
      b) Copy $installdir/hspice.ini to your HOME directory and
         customize it by adding option runlvl=0, which disables
         it for all of your simulation jobs.
      c) Re-invoke $installdir/bin/config program and unselect the
         option runlvl setting in box 'hspice.ini' which disables
         it for whole group simulation jobs.

 ** runlvl is invoked, some options are ignored or automatically set:
      Options below are automatically set(user setting will overwrite them):
      if runlvl=6,            .option bypass=0
      if runlvl=[1|2|3|4|5],  .option bypass=2

      Options below are ignored, they are replaced by automated algorithms:
        lvltim    dvdt      ft    fast   trtol  absvar  relvar
          relq  chgtol    dvtr    imin    itl3    rmax

 ** runlvl is invoked, actual option value used by HSPICE are:
       runlvl= 3       bypass= 2      mbypass=   2.00   bytol= 100.00u
 ***********************************************************************

 ** warning** associated with encrypted blocks were suppressed

 

 **warning** the following singular supplies were terminated to 1 meg resistor 
   supply       node1            node2
  vgs                     0:g                defined in subckt 0                     0:0                defined in subckt 0               
      
 ******  
 *** ali abyaneh dec ca1- part1********                                         
  ******  dc transfer curves               tnom=  25.000 temp=  25.000          
 ******  

   *** source        0:vgs              =   -1.0000        ***

x

        volt    current 3  
                    m2     
   -1.00000      -1.7128m  
 -900.00000m     -1.5607m  
 -800.00000m     -1.4163m  
 -700.00000m     -1.2783m  
 -600.00000m     -1.1458m  
 -500.00000m     -1.0178m  
 -400.00000m   -893.7069u  
 -300.00000m   -773.2064u  
 -200.00000m   -656.1394u  
 -100.00000m   -542.6715u  
    0.         -433.3094u  
  100.00000m   -328.9691u  
  200.00000m   -231.0913u  
  300.00000m   -142.0485u  
  400.00000m    -67.0249u  
  500.00000m    -18.1003u  
  600.00000m     -2.1416u  
  700.00000m   -157.9674n  
  800.00000m     -9.2902n  
  900.00000m   -484.6096p  
    1.00000     -23.8466p  
    1.10000    -3.837e-27  
    1.20000       3.3816p  
    1.30000       9.0062p  
    1.40000      21.7321p  
    1.50000      48.8452p  
    1.60000     103.3674p  
    1.70000     207.4450p  
    1.80000     391.8434p  
    1.90000     694.9536p  
    2.00000       1.2034n  
y

          ***** job concluded
 ******  
 *** ali abyaneh dec ca1- part1********                                         
  ******  dc transfer curves               tnom=  25.000 temp=  25.000          
 ******  

   *** source        0:vgs              = -900.0000m       ***

x

        volt    current 3  
                    m2     
   -1.00000      -1.7128m  
 -900.00000m     -1.5607m  
 -800.00000m     -1.4163m  
 -700.00000m     -1.2783m  
 -600.00000m     -1.1458m  
 -500.00000m     -1.0178m  
 -400.00000m   -893.7069u  
 -300.00000m   -773.2064u  
 -200.00000m   -656.1394u  
 -100.00000m   -542.6715u  
    0.         -433.3094u  
  100.00000m   -328.9691u  
  200.00000m   -231.0913u  
  300.00000m   -142.0485u  
  400.00000m    -67.0249u  
  500.00000m    -18.1003u  
  600.00000m     -2.1416u  
  700.00000m   -157.9674n  
  800.00000m     -9.2902n  
  900.00000m   -484.6096p  
    1.00000     -23.8466p  
    1.10000    -3.837e-27  
    1.20000       3.3816p  
    1.30000       9.0062p  
    1.40000      21.7321p  
    1.50000      48.8452p  
    1.60000     103.3674p  
    1.70000     207.4450p  
    1.80000     391.8434p  
    1.90000     694.9536p  
    2.00000       1.2034n  
y

          ***** job concluded
 ******  
 *** ali abyaneh dec ca1- part1********                                         
  ******  dc transfer curves               tnom=  25.000 temp=  25.000          
 ******  

   *** source        0:vgs              = -800.0000m       ***

x

        volt    current 3  
                    m2     
   -1.00000      -1.7128m  
 -900.00000m     -1.5607m  
 -800.00000m     -1.4163m  
 -700.00000m     -1.2783m  
 -600.00000m     -1.1458m  
 -500.00000m     -1.0178m  
 -400.00000m   -893.7069u  
 -300.00000m   -773.2064u  
 -200.00000m   -656.1394u  
 -100.00000m   -542.6715u  
    0.         -433.3094u  
  100.00000m   -328.9691u  
  200.00000m   -231.0913u  
  300.00000m   -142.0485u  
  400.00000m    -67.0249u  
  500.00000m    -18.1003u  
  600.00000m     -2.1416u  
  700.00000m   -157.9674n  
  800.00000m     -9.2902n  
  900.00000m   -484.6096p  
    1.00000     -23.8466p  
    1.10000    -3.837e-27  
    1.20000       3.3816p  
    1.30000       9.0062p  
    1.40000      21.7321p  
    1.50000      48.8452p  
    1.60000     103.3674p  
    1.70000     207.4450p  
    1.80000     391.8434p  
    1.90000     694.9536p  
    2.00000       1.2034n  
y

          ***** job concluded
 ******  
 *** ali abyaneh dec ca1- part1********                                         
  ******  dc transfer curves               tnom=  25.000 temp=  25.000          
 ******  

   *** source        0:vgs              = -700.0000m       ***

x

        volt    current 3  
                    m2     
   -1.00000      -1.7128m  
 -900.00000m     -1.5607m  
 -800.00000m     -1.4163m  
 -700.00000m     -1.2783m  
 -600.00000m     -1.1458m  
 -500.00000m     -1.0178m  
 -400.00000m   -893.7069u  
 -300.00000m   -773.2064u  
 -200.00000m   -656.1394u  
 -100.00000m   -542.6715u  
    0.         -433.3094u  
  100.00000m   -328.9691u  
  200.00000m   -231.0913u  
  300.00000m   -142.0485u  
  400.00000m    -67.0249u  
  500.00000m    -18.1003u  
  600.00000m     -2.1416u  
  700.00000m   -157.9674n  
  800.00000m     -9.2902n  
  900.00000m   -484.6096p  
    1.00000     -23.8466p  
    1.10000    -3.837e-27  
    1.20000       3.3816p  
    1.30000       9.0062p  
    1.40000      21.7321p  
    1.50000      48.8452p  
    1.60000     103.3674p  
    1.70000     207.4450p  
    1.80000     391.8434p  
    1.90000     694.9536p  
    2.00000       1.2034n  
y

          ***** job concluded
 ******  
 *** ali abyaneh dec ca1- part1********                                         
  ******  dc transfer curves               tnom=  25.000 temp=  25.000          
 ******  

   *** source        0:vgs              = -600.0000m       ***

x

        volt    current 3  
                    m2     
   -1.00000      -1.7128m  
 -900.00000m     -1.5607m  
 -800.00000m     -1.4163m  
 -700.00000m     -1.2783m  
 -600.00000m     -1.1458m  
 -500.00000m     -1.0178m  
 -400.00000m   -893.7069u  
 -300.00000m   -773.2064u  
 -200.00000m   -656.1394u  
 -100.00000m   -542.6715u  
    0.         -433.3094u  
  100.00000m   -328.9691u  
  200.00000m   -231.0913u  
  300.00000m   -142.0485u  
  400.00000m    -67.0249u  
  500.00000m    -18.1003u  
  600.00000m     -2.1416u  
  700.00000m   -157.9674n  
  800.00000m     -9.2902n  
  900.00000m   -484.6096p  
    1.00000     -23.8466p  
    1.10000    -3.837e-27  
    1.20000       3.3816p  
    1.30000       9.0062p  
    1.40000      21.7321p  
    1.50000      48.8452p  
    1.60000     103.3674p  
    1.70000     207.4450p  
    1.80000     391.8434p  
    1.90000     694.9536p  
    2.00000       1.2034n  
y

          ***** job concluded
 ******  
 *** ali abyaneh dec ca1- part1********                                         
  ******  dc transfer curves               tnom=  25.000 temp=  25.000          
 ******  

   *** source        0:vgs              = -500.0000m       ***

x

        volt    current 3  
                    m2     
   -1.00000      -1.7128m  
 -900.00000m     -1.5607m  
 -800.00000m     -1.4163m  
 -700.00000m     -1.2783m  
 -600.00000m     -1.1458m  
 -500.00000m     -1.0178m  
 -400.00000m   -893.7069u  
 -300.00000m   -773.2064u  
 -200.00000m   -656.1394u  
 -100.00000m   -542.6715u  
    0.         -433.3094u  
  100.00000m   -328.9691u  
  200.00000m   -231.0913u  
  300.00000m   -142.0485u  
  400.00000m    -67.0249u  
  500.00000m    -18.1003u  
  600.00000m     -2.1416u  
  700.00000m   -157.9674n  
  800.00000m     -9.2902n  
  900.00000m   -484.6096p  
    1.00000     -23.8466p  
    1.10000    -3.837e-27  
    1.20000       3.3816p  
    1.30000       9.0062p  
    1.40000      21.7321p  
    1.50000      48.8452p  
    1.60000     103.3674p  
    1.70000     207.4450p  
    1.80000     391.8434p  
    1.90000     694.9536p  
    2.00000       1.2034n  
y

          ***** job concluded
 ******  
 *** ali abyaneh dec ca1- part1********                                         
  ******  dc transfer curves               tnom=  25.000 temp=  25.000          
 ******  

   *** source        0:vgs              = -400.0000m       ***

x

        volt    current 3  
                    m2     
   -1.00000      -1.7128m  
 -900.00000m     -1.5607m  
 -800.00000m     -1.4163m  
 -700.00000m     -1.2783m  
 -600.00000m     -1.1458m  
 -500.00000m     -1.0178m  
 -400.00000m   -893.7069u  
 -300.00000m   -773.2064u  
 -200.00000m   -656.1394u  
 -100.00000m   -542.6715u  
    0.         -433.3094u  
  100.00000m   -328.9691u  
  200.00000m   -231.0913u  
  300.00000m   -142.0485u  
  400.00000m    -67.0249u  
  500.00000m    -18.1003u  
  600.00000m     -2.1416u  
  700.00000m   -157.9674n  
  800.00000m     -9.2902n  
  900.00000m   -484.6096p  
    1.00000     -23.8466p  
    1.10000    -3.837e-27  
    1.20000       3.3816p  
    1.30000       9.0062p  
    1.40000      21.7321p  
    1.50000      48.8452p  
    1.60000     103.3674p  
    1.70000     207.4450p  
    1.80000     391.8434p  
    1.90000     694.9536p  
    2.00000       1.2034n  
y

          ***** job concluded
 ******  
 *** ali abyaneh dec ca1- part1********                                         
  ******  dc transfer curves               tnom=  25.000 temp=  25.000          
 ******  

   *** source        0:vgs              = -300.0000m       ***

x

        volt    current 3  
                    m2     
   -1.00000      -1.7128m  
 -900.00000m     -1.5607m  
 -800.00000m     -1.4163m  
 -700.00000m     -1.2783m  
 -600.00000m     -1.1458m  
 -500.00000m     -1.0178m  
 -400.00000m   -893.7069u  
 -300.00000m   -773.2064u  
 -200.00000m   -656.1394u  
 -100.00000m   -542.6715u  
    0.         -433.3094u  
  100.00000m   -328.9691u  
  200.00000m   -231.0913u  
  300.00000m   -142.0485u  
  400.00000m    -67.0249u  
  500.00000m    -18.1003u  
  600.00000m     -2.1416u  
  700.00000m   -157.9674n  
  800.00000m     -9.2902n  
  900.00000m   -484.6096p  
    1.00000     -23.8466p  
    1.10000    -3.837e-27  
    1.20000       3.3816p  
    1.30000       9.0062p  
    1.40000      21.7321p  
    1.50000      48.8452p  
    1.60000     103.3674p  
    1.70000     207.4450p  
    1.80000     391.8434p  
    1.90000     694.9536p  
    2.00000       1.2034n  
y

          ***** job concluded
 ******  
 *** ali abyaneh dec ca1- part1********                                         
  ******  dc transfer curves               tnom=  25.000 temp=  25.000          
 ******  

   *** source        0:vgs              = -200.0000m       ***

x

        volt    current 3  
                    m2     
   -1.00000      -1.7128m  
 -900.00000m     -1.5607m  
 -800.00000m     -1.4163m  
 -700.00000m     -1.2783m  
 -600.00000m     -1.1458m  
 -500.00000m     -1.0178m  
 -400.00000m   -893.7069u  
 -300.00000m   -773.2064u  
 -200.00000m   -656.1394u  
 -100.00000m   -542.6715u  
    0.         -433.3094u  
  100.00000m   -328.9691u  
  200.00000m   -231.0913u  
  300.00000m   -142.0485u  
  400.00000m    -67.0249u  
  500.00000m    -18.1003u  
  600.00000m     -2.1416u  
  700.00000m   -157.9674n  
  800.00000m     -9.2902n  
  900.00000m   -484.6096p  
    1.00000     -23.8466p  
    1.10000    -3.837e-27  
    1.20000       3.3816p  
    1.30000       9.0062p  
    1.40000      21.7321p  
    1.50000      48.8452p  
    1.60000     103.3674p  
    1.70000     207.4450p  
    1.80000     391.8434p  
    1.90000     694.9536p  
    2.00000       1.2034n  
y

          ***** job concluded
 ******  
 *** ali abyaneh dec ca1- part1********                                         
  ******  dc transfer curves               tnom=  25.000 temp=  25.000          
 ******  

   *** source        0:vgs              = -100.0000m       ***

x

        volt    current 3  
                    m2     
   -1.00000      -1.7128m  
 -900.00000m     -1.5607m  
 -800.00000m     -1.4163m  
 -700.00000m     -1.2783m  
 -600.00000m     -1.1458m  
 -500.00000m     -1.0178m  
 -400.00000m   -893.7069u  
 -300.00000m   -773.2064u  
 -200.00000m   -656.1394u  
 -100.00000m   -542.6715u  
    0.         -433.3094u  
  100.00000m   -328.9691u  
  200.00000m   -231.0913u  
  300.00000m   -142.0485u  
  400.00000m    -67.0249u  
  500.00000m    -18.1003u  
  600.00000m     -2.1416u  
  700.00000m   -157.9674n  
  800.00000m     -9.2902n  
  900.00000m   -484.6096p  
    1.00000     -23.8466p  
    1.10000    -3.837e-27  
    1.20000       3.3816p  
    1.30000       9.0062p  
    1.40000      21.7321p  
    1.50000      48.8452p  
    1.60000     103.3674p  
    1.70000     207.4450p  
    1.80000     391.8434p  
    1.90000     694.9536p  
    2.00000       1.2034n  
y

          ***** job concluded
 ******  
 *** ali abyaneh dec ca1- part1********                                         
  ******  dc transfer curves               tnom=  25.000 temp=  25.000          
 ******  

   *** source        0:vgs              =    0.            ***

x

        volt    current 3  
                    m2     
   -1.00000      -1.7128m  
 -900.00000m     -1.5607m  
 -800.00000m     -1.4163m  
 -700.00000m     -1.2783m  
 -600.00000m     -1.1458m  
 -500.00000m     -1.0178m  
 -400.00000m   -893.7069u  
 -300.00000m   -773.2064u  
 -200.00000m   -656.1394u  
 -100.00000m   -542.6715u  
    0.         -433.3094u  
  100.00000m   -328.9691u  
  200.00000m   -231.0913u  
  300.00000m   -142.0485u  
  400.00000m    -67.0249u  
  500.00000m    -18.1003u  
  600.00000m     -2.1416u  
  700.00000m   -157.9674n  
  800.00000m     -9.2902n  
  900.00000m   -484.6096p  
    1.00000     -23.8466p  
    1.10000    -3.837e-27  
    1.20000       3.3816p  
    1.30000       9.0062p  
    1.40000      21.7321p  
    1.50000      48.8452p  
    1.60000     103.3674p  
    1.70000     207.4450p  
    1.80000     391.8434p  
    1.90000     694.9536p  
    2.00000       1.2034n  
y

          ***** job concluded
 ******  
 *** ali abyaneh dec ca1- part1********                                         
  ******  dc transfer curves               tnom=  25.000 temp=  25.000          
 ******  

   *** source        0:vgs              =  100.0000m       ***

x

        volt    current 3  
                    m2     
   -1.00000      -1.7128m  
 -900.00000m     -1.5607m  
 -800.00000m     -1.4163m  
 -700.00000m     -1.2783m  
 -600.00000m     -1.1458m  
 -500.00000m     -1.0178m  
 -400.00000m   -893.7069u  
 -300.00000m   -773.2064u  
 -200.00000m   -656.1394u  
 -100.00000m   -542.6715u  
    0.         -433.3094u  
  100.00000m   -328.9691u  
  200.00000m   -231.0913u  
  300.00000m   -142.0485u  
  400.00000m    -67.0249u  
  500.00000m    -18.1003u  
  600.00000m     -2.1416u  
  700.00000m   -157.9674n  
  800.00000m     -9.2902n  
  900.00000m   -484.6096p  
    1.00000     -23.8466p  
    1.10000    -3.837e-27  
    1.20000       3.3816p  
    1.30000       9.0062p  
    1.40000      21.7321p  
    1.50000      48.8452p  
    1.60000     103.3674p  
    1.70000     207.4450p  
    1.80000     391.8434p  
    1.90000     694.9536p  
    2.00000       1.2034n  
y

          ***** job concluded
 ******  
 *** ali abyaneh dec ca1- part1********                                         
  ******  dc transfer curves               tnom=  25.000 temp=  25.000          
 ******  

   *** source        0:vgs              =  200.0000m       ***

x

        volt    current 3  
                    m2     
   -1.00000      -1.7128m  
 -900.00000m     -1.5607m  
 -800.00000m     -1.4163m  
 -700.00000m     -1.2783m  
 -600.00000m     -1.1458m  
 -500.00000m     -1.0178m  
 -400.00000m   -893.7069u  
 -300.00000m   -773.2064u  
 -200.00000m   -656.1394u  
 -100.00000m   -542.6715u  
    0.         -433.3094u  
  100.00000m   -328.9691u  
  200.00000m   -231.0913u  
  300.00000m   -142.0485u  
  400.00000m    -67.0249u  
  500.00000m    -18.1003u  
  600.00000m     -2.1416u  
  700.00000m   -157.9674n  
  800.00000m     -9.2902n  
  900.00000m   -484.6096p  
    1.00000     -23.8466p  
    1.10000    -3.837e-27  
    1.20000       3.3816p  
    1.30000       9.0062p  
    1.40000      21.7321p  
    1.50000      48.8452p  
    1.60000     103.3674p  
    1.70000     207.4450p  
    1.80000     391.8434p  
    1.90000     694.9536p  
    2.00000       1.2034n  
y

          ***** job concluded
 ******  
 *** ali abyaneh dec ca1- part1********                                         
  ******  dc transfer curves               tnom=  25.000 temp=  25.000          
 ******  

   *** source        0:vgs              =  300.0000m       ***

x

        volt    current 3  
                    m2     
   -1.00000      -1.7128m  
 -900.00000m     -1.5607m  
 -800.00000m     -1.4163m  
 -700.00000m     -1.2783m  
 -600.00000m     -1.1458m  
 -500.00000m     -1.0178m  
 -400.00000m   -893.7069u  
 -300.00000m   -773.2064u  
 -200.00000m   -656.1394u  
 -100.00000m   -542.6715u  
    0.         -433.3094u  
  100.00000m   -328.9691u  
  200.00000m   -231.0913u  
  300.00000m   -142.0485u  
  400.00000m    -67.0249u  
  500.00000m    -18.1003u  
  600.00000m     -2.1416u  
  700.00000m   -157.9674n  
  800.00000m     -9.2902n  
  900.00000m   -484.6096p  
    1.00000     -23.8466p  
    1.10000    -3.837e-27  
    1.20000       3.3816p  
    1.30000       9.0062p  
    1.40000      21.7321p  
    1.50000      48.8452p  
    1.60000     103.3674p  
    1.70000     207.4450p  
    1.80000     391.8434p  
    1.90000     694.9536p  
    2.00000       1.2034n  
y

          ***** job concluded
 ******  
 *** ali abyaneh dec ca1- part1********                                         
  ******  dc transfer curves               tnom=  25.000 temp=  25.000          
 ******  

   *** source        0:vgs              =  400.0000m       ***

x

        volt    current 3  
                    m2     
   -1.00000      -1.7128m  
 -900.00000m     -1.5607m  
 -800.00000m     -1.4163m  
 -700.00000m     -1.2783m  
 -600.00000m     -1.1458m  
 -500.00000m     -1.0178m  
 -400.00000m   -893.7069u  
 -300.00000m   -773.2064u  
 -200.00000m   -656.1394u  
 -100.00000m   -542.6715u  
    0.         -433.3094u  
  100.00000m   -328.9691u  
  200.00000m   -231.0913u  
  300.00000m   -142.0485u  
  400.00000m    -67.0249u  
  500.00000m    -18.1003u  
  600.00000m     -2.1416u  
  700.00000m   -157.9674n  
  800.00000m     -9.2902n  
  900.00000m   -484.6096p  
    1.00000     -23.8466p  
    1.10000    -3.837e-27  
    1.20000       3.3816p  
    1.30000       9.0062p  
    1.40000      21.7321p  
    1.50000      48.8452p  
    1.60000     103.3674p  
    1.70000     207.4450p  
    1.80000     391.8434p  
    1.90000     694.9536p  
    2.00000       1.2034n  
y

          ***** job concluded
 ******  
 *** ali abyaneh dec ca1- part1********                                         
  ******  dc transfer curves               tnom=  25.000 temp=  25.000          
 ******  

   *** source        0:vgs              =  500.0000m       ***

x

        volt    current 3  
                    m2     
   -1.00000      -1.7128m  
 -900.00000m     -1.5607m  
 -800.00000m     -1.4163m  
 -700.00000m     -1.2783m  
 -600.00000m     -1.1458m  
 -500.00000m     -1.0178m  
 -400.00000m   -893.7069u  
 -300.00000m   -773.2064u  
 -200.00000m   -656.1394u  
 -100.00000m   -542.6715u  
    0.         -433.3094u  
  100.00000m   -328.9691u  
  200.00000m   -231.0913u  
  300.00000m   -142.0485u  
  400.00000m    -67.0249u  
  500.00000m    -18.1003u  
  600.00000m     -2.1416u  
  700.00000m   -157.9674n  
  800.00000m     -9.2902n  
  900.00000m   -484.6096p  
    1.00000     -23.8466p  
    1.10000    -3.837e-27  
    1.20000       3.3816p  
    1.30000       9.0062p  
    1.40000      21.7321p  
    1.50000      48.8452p  
    1.60000     103.3674p  
    1.70000     207.4450p  
    1.80000     391.8434p  
    1.90000     694.9536p  
    2.00000       1.2034n  
y

          ***** job concluded
 ******  
 *** ali abyaneh dec ca1- part1********                                         
  ******  dc transfer curves               tnom=  25.000 temp=  25.000          
 ******  

   *** source        0:vgs              =  600.0000m       ***

x

        volt    current 3  
                    m2     
   -1.00000      -1.7128m  
 -900.00000m     -1.5607m  
 -800.00000m     -1.4163m  
 -700.00000m     -1.2783m  
 -600.00000m     -1.1458m  
 -500.00000m     -1.0178m  
 -400.00000m   -893.7069u  
 -300.00000m   -773.2064u  
 -200.00000m   -656.1394u  
 -100.00000m   -542.6715u  
    0.         -433.3094u  
  100.00000m   -328.9691u  
  200.00000m   -231.0913u  
  300.00000m   -142.0485u  
  400.00000m    -67.0249u  
  500.00000m    -18.1003u  
  600.00000m     -2.1416u  
  700.00000m   -157.9674n  
  800.00000m     -9.2902n  
  900.00000m   -484.6096p  
    1.00000     -23.8466p  
    1.10000    -3.837e-27  
    1.20000       3.3816p  
    1.30000       9.0062p  
    1.40000      21.7321p  
    1.50000      48.8452p  
    1.60000     103.3674p  
    1.70000     207.4450p  
    1.80000     391.8434p  
    1.90000     694.9536p  
    2.00000       1.2034n  
y

          ***** job concluded
 ******  
 *** ali abyaneh dec ca1- part1********                                         
  ******  dc transfer curves               tnom=  25.000 temp=  25.000          
 ******  

   *** source        0:vgs              =  700.0000m       ***

x

        volt    current 3  
                    m2     
   -1.00000      -1.7128m  
 -900.00000m     -1.5607m  
 -800.00000m     -1.4163m  
 -700.00000m     -1.2783m  
 -600.00000m     -1.1458m  
 -500.00000m     -1.0178m  
 -400.00000m   -893.7069u  
 -300.00000m   -773.2064u  
 -200.00000m   -656.1394u  
 -100.00000m   -542.6715u  
    0.         -433.3094u  
  100.00000m   -328.9691u  
  200.00000m   -231.0913u  
  300.00000m   -142.0485u  
  400.00000m    -67.0249u  
  500.00000m    -18.1003u  
  600.00000m     -2.1416u  
  700.00000m   -157.9674n  
  800.00000m     -9.2902n  
  900.00000m   -484.6096p  
    1.00000     -23.8466p  
    1.10000    -3.837e-27  
    1.20000       3.3816p  
    1.30000       9.0062p  
    1.40000      21.7321p  
    1.50000      48.8452p  
    1.60000     103.3674p  
    1.70000     207.4450p  
    1.80000     391.8434p  
    1.90000     694.9536p  
    2.00000       1.2034n  
y

          ***** job concluded
 ******  
 *** ali abyaneh dec ca1- part1********                                         
  ******  dc transfer curves               tnom=  25.000 temp=  25.000          
 ******  

   *** source        0:vgs              =  800.0000m       ***

x

        volt    current 3  
                    m2     
   -1.00000      -1.7128m  
 -900.00000m     -1.5607m  
 -800.00000m     -1.4163m  
 -700.00000m     -1.2783m  
 -600.00000m     -1.1458m  
 -500.00000m     -1.0178m  
 -400.00000m   -893.7069u  
 -300.00000m   -773.2064u  
 -200.00000m   -656.1394u  
 -100.00000m   -542.6715u  
    0.         -433.3094u  
  100.00000m   -328.9691u  
  200.00000m   -231.0913u  
  300.00000m   -142.0485u  
  400.00000m    -67.0249u  
  500.00000m    -18.1003u  
  600.00000m     -2.1416u  
  700.00000m   -157.9674n  
  800.00000m     -9.2902n  
  900.00000m   -484.6096p  
    1.00000     -23.8466p  
    1.10000    -3.837e-27  
    1.20000       3.3816p  
    1.30000       9.0062p  
    1.40000      21.7321p  
    1.50000      48.8452p  
    1.60000     103.3674p  
    1.70000     207.4450p  
    1.80000     391.8434p  
    1.90000     694.9536p  
    2.00000       1.2034n  
y

          ***** job concluded
 ******  
 *** ali abyaneh dec ca1- part1********                                         
  ******  dc transfer curves               tnom=  25.000 temp=  25.000          
 ******  

   *** source        0:vgs              =  900.0000m       ***

x

        volt    current 3  
                    m2     
   -1.00000      -1.7128m  
 -900.00000m     -1.5607m  
 -800.00000m     -1.4163m  
 -700.00000m     -1.2783m  
 -600.00000m     -1.1458m  
 -500.00000m     -1.0178m  
 -400.00000m   -893.7069u  
 -300.00000m   -773.2064u  
 -200.00000m   -656.1394u  
 -100.00000m   -542.6715u  
    0.         -433.3094u  
  100.00000m   -328.9691u  
  200.00000m   -231.0913u  
  300.00000m   -142.0485u  
  400.00000m    -67.0249u  
  500.00000m    -18.1003u  
  600.00000m     -2.1416u  
  700.00000m   -157.9674n  
  800.00000m     -9.2902n  
  900.00000m   -484.6096p  
    1.00000     -23.8466p  
    1.10000    -3.837e-27  
    1.20000       3.3816p  
    1.30000       9.0062p  
    1.40000      21.7321p  
    1.50000      48.8452p  
    1.60000     103.3674p  
    1.70000     207.4450p  
    1.80000     391.8434p  
    1.90000     694.9536p  
    2.00000       1.2034n  
y

          ***** job concluded
 ******  
 *** ali abyaneh dec ca1- part1********                                         
  ******  dc transfer curves               tnom=  25.000 temp=  25.000          
 ******  

   *** source        0:vgs              =    1.0000        ***

x

        volt    current 3  
                    m2     
   -1.00000      -1.7128m  
 -900.00000m     -1.5607m  
 -800.00000m     -1.4163m  
 -700.00000m     -1.2783m  
 -600.00000m     -1.1458m  
 -500.00000m     -1.0178m  
 -400.00000m   -893.7069u  
 -300.00000m   -773.2064u  
 -200.00000m   -656.1394u  
 -100.00000m   -542.6715u  
    0.         -433.3094u  
  100.00000m   -328.9691u  
  200.00000m   -231.0913u  
  300.00000m   -142.0485u  
  400.00000m    -67.0249u  
  500.00000m    -18.1003u  
  600.00000m     -2.1416u  
  700.00000m   -157.9674n  
  800.00000m     -9.2902n  
  900.00000m   -484.6096p  
    1.00000     -23.8466p  
    1.10000    -3.837e-27  
    1.20000       3.3816p  
    1.30000       9.0062p  
    1.40000      21.7321p  
    1.50000      48.8452p  
    1.60000     103.3674p  
    1.70000     207.4450p  
    1.80000     391.8434p  
    1.90000     694.9536p  
    2.00000       1.2034n  
y

          ***** job concluded
 ******  
 *** ali abyaneh dec ca1- part1********                                         
  ******  dc transfer curves               tnom=  25.000 temp=  25.000          
 ******  

   *** source        0:vgs              =    1.1000        ***

x

        volt    current 3  
                    m2     
   -1.00000      -1.7128m  
 -900.00000m     -1.5607m  
 -800.00000m     -1.4163m  
 -700.00000m     -1.2783m  
 -600.00000m     -1.1458m  
 -500.00000m     -1.0178m  
 -400.00000m   -893.7069u  
 -300.00000m   -773.2064u  
 -200.00000m   -656.1394u  
 -100.00000m   -542.6715u  
    0.         -433.3094u  
  100.00000m   -328.9691u  
  200.00000m   -231.0913u  
  300.00000m   -142.0485u  
  400.00000m    -67.0249u  
  500.00000m    -18.1003u  
  600.00000m     -2.1416u  
  700.00000m   -157.9674n  
  800.00000m     -9.2902n  
  900.00000m   -484.6096p  
    1.00000     -23.8466p  
    1.10000    -3.837e-27  
    1.20000       3.3816p  
    1.30000       9.0062p  
    1.40000      21.7321p  
    1.50000      48.8452p  
    1.60000     103.3674p  
    1.70000     207.4450p  
    1.80000     391.8434p  
    1.90000     694.9536p  
    2.00000       1.2034n  
y

          ***** job concluded
 ******  
 *** ali abyaneh dec ca1- part1********                                         
  ******  dc transfer curves               tnom=  25.000 temp=  25.000          
 ******  

   *** source        0:vgs              =    1.2000        ***

x

        volt    current 3  
                    m2     
   -1.00000      -1.7128m  
 -900.00000m     -1.5607m  
 -800.00000m     -1.4163m  
 -700.00000m     -1.2783m  
 -600.00000m     -1.1458m  
 -500.00000m     -1.0178m  
 -400.00000m   -893.7069u  
 -300.00000m   -773.2064u  
 -200.00000m   -656.1394u  
 -100.00000m   -542.6715u  
    0.         -433.3094u  
  100.00000m   -328.9691u  
  200.00000m   -231.0913u  
  300.00000m   -142.0485u  
  400.00000m    -67.0249u  
  500.00000m    -18.1003u  
  600.00000m     -2.1416u  
  700.00000m   -157.9674n  
  800.00000m     -9.2902n  
  900.00000m   -484.6096p  
    1.00000     -23.8466p  
    1.10000    -3.837e-27  
    1.20000       3.3816p  
    1.30000       9.0062p  
    1.40000      21.7321p  
    1.50000      48.8452p  
    1.60000     103.3674p  
    1.70000     207.4450p  
    1.80000     391.8434p  
    1.90000     694.9536p  
    2.00000       1.2034n  
y

          ***** job concluded
 ******  
 *** ali abyaneh dec ca1- part1********                                         
  ******  dc transfer curves               tnom=  25.000 temp=  25.000          
 ******  

   *** source        0:vgs              =    1.3000        ***

x

        volt    current 3  
                    m2     
   -1.00000      -1.7128m  
 -900.00000m     -1.5607m  
 -800.00000m     -1.4163m  
 -700.00000m     -1.2783m  
 -600.00000m     -1.1458m  
 -500.00000m     -1.0178m  
 -400.00000m   -893.7069u  
 -300.00000m   -773.2064u  
 -200.00000m   -656.1394u  
 -100.00000m   -542.6715u  
    0.         -433.3094u  
  100.00000m   -328.9691u  
  200.00000m   -231.0913u  
  300.00000m   -142.0485u  
  400.00000m    -67.0249u  
  500.00000m    -18.1003u  
  600.00000m     -2.1416u  
  700.00000m   -157.9674n  
  800.00000m     -9.2902n  
  900.00000m   -484.6096p  
    1.00000     -23.8466p  
    1.10000    -3.837e-27  
    1.20000       3.3816p  
    1.30000       9.0062p  
    1.40000      21.7321p  
    1.50000      48.8452p  
    1.60000     103.3674p  
    1.70000     207.4450p  
    1.80000     391.8434p  
    1.90000     694.9536p  
    2.00000       1.2034n  
y

          ***** job concluded
 ******  
 *** ali abyaneh dec ca1- part1********                                         
  ******  dc transfer curves               tnom=  25.000 temp=  25.000          
 ******  

   *** source        0:vgs              =    1.4000        ***

x

        volt    current 3  
                    m2     
   -1.00000      -1.7128m  
 -900.00000m     -1.5607m  
 -800.00000m     -1.4163m  
 -700.00000m     -1.2783m  
 -600.00000m     -1.1458m  
 -500.00000m     -1.0178m  
 -400.00000m   -893.7069u  
 -300.00000m   -773.2064u  
 -200.00000m   -656.1394u  
 -100.00000m   -542.6715u  
    0.         -433.3094u  
  100.00000m   -328.9691u  
  200.00000m   -231.0913u  
  300.00000m   -142.0485u  
  400.00000m    -67.0249u  
  500.00000m    -18.1003u  
  600.00000m     -2.1416u  
  700.00000m   -157.9674n  
  800.00000m     -9.2902n  
  900.00000m   -484.6096p  
    1.00000     -23.8466p  
    1.10000    -3.837e-27  
    1.20000       3.3816p  
    1.30000       9.0062p  
    1.40000      21.7321p  
    1.50000      48.8452p  
    1.60000     103.3674p  
    1.70000     207.4450p  
    1.80000     391.8434p  
    1.90000     694.9536p  
    2.00000       1.2034n  
y

          ***** job concluded
 ******  
 *** ali abyaneh dec ca1- part1********                                         
  ******  dc transfer curves               tnom=  25.000 temp=  25.000          
 ******  

   *** source        0:vgs              =    1.5000        ***

x

        volt    current 3  
                    m2     
   -1.00000      -1.7128m  
 -900.00000m     -1.5607m  
 -800.00000m     -1.4163m  
 -700.00000m     -1.2783m  
 -600.00000m     -1.1458m  
 -500.00000m     -1.0178m  
 -400.00000m   -893.7069u  
 -300.00000m   -773.2064u  
 -200.00000m   -656.1394u  
 -100.00000m   -542.6715u  
    0.         -433.3094u  
  100.00000m   -328.9691u  
  200.00000m   -231.0913u  
  300.00000m   -142.0485u  
  400.00000m    -67.0249u  
  500.00000m    -18.1003u  
  600.00000m     -2.1416u  
  700.00000m   -157.9674n  
  800.00000m     -9.2902n  
  900.00000m   -484.6096p  
    1.00000     -23.8466p  
    1.10000    -3.837e-27  
    1.20000       3.3816p  
    1.30000       9.0062p  
    1.40000      21.7321p  
    1.50000      48.8452p  
    1.60000     103.3674p  
    1.70000     207.4450p  
    1.80000     391.8434p  
    1.90000     694.9536p  
    2.00000       1.2034n  
y

          ***** job concluded
 ******  
 *** ali abyaneh dec ca1- part1********                                         
  ******  dc transfer curves               tnom=  25.000 temp=  25.000          
 ******  

   *** source        0:vgs              =    1.6000        ***

x

        volt    current 3  
                    m2     
   -1.00000      -1.7128m  
 -900.00000m     -1.5607m  
 -800.00000m     -1.4163m  
 -700.00000m     -1.2783m  
 -600.00000m     -1.1458m  
 -500.00000m     -1.0178m  
 -400.00000m   -893.7069u  
 -300.00000m   -773.2064u  
 -200.00000m   -656.1394u  
 -100.00000m   -542.6715u  
    0.         -433.3094u  
  100.00000m   -328.9691u  
  200.00000m   -231.0913u  
  300.00000m   -142.0485u  
  400.00000m    -67.0249u  
  500.00000m    -18.1003u  
  600.00000m     -2.1416u  
  700.00000m   -157.9674n  
  800.00000m     -9.2902n  
  900.00000m   -484.6096p  
    1.00000     -23.8466p  
    1.10000    -3.837e-27  
    1.20000       3.3816p  
    1.30000       9.0062p  
    1.40000      21.7321p  
    1.50000      48.8452p  
    1.60000     103.3674p  
    1.70000     207.4450p  
    1.80000     391.8434p  
    1.90000     694.9536p  
    2.00000       1.2034n  
y

          ***** job concluded
 ******  
 *** ali abyaneh dec ca1- part1********                                         
  ******  dc transfer curves               tnom=  25.000 temp=  25.000          
 ******  

   *** source        0:vgs              =    1.7000        ***

x

        volt    current 3  
                    m2     
   -1.00000      -1.7128m  
 -900.00000m     -1.5607m  
 -800.00000m     -1.4163m  
 -700.00000m     -1.2783m  
 -600.00000m     -1.1458m  
 -500.00000m     -1.0178m  
 -400.00000m   -893.7069u  
 -300.00000m   -773.2064u  
 -200.00000m   -656.1394u  
 -100.00000m   -542.6715u  
    0.         -433.3094u  
  100.00000m   -328.9691u  
  200.00000m   -231.0913u  
  300.00000m   -142.0485u  
  400.00000m    -67.0249u  
  500.00000m    -18.1003u  
  600.00000m     -2.1416u  
  700.00000m   -157.9674n  
  800.00000m     -9.2902n  
  900.00000m   -484.6096p  
    1.00000     -23.8466p  
    1.10000    -3.837e-27  
    1.20000       3.3816p  
    1.30000       9.0062p  
    1.40000      21.7321p  
    1.50000      48.8452p  
    1.60000     103.3674p  
    1.70000     207.4450p  
    1.80000     391.8434p  
    1.90000     694.9536p  
    2.00000       1.2034n  
y

          ***** job concluded
 ******  
 *** ali abyaneh dec ca1- part1********                                         
  ******  dc transfer curves               tnom=  25.000 temp=  25.000          
 ******  

   *** source        0:vgs              =    1.8000        ***

x

        volt    current 3  
                    m2     
   -1.00000      -1.7128m  
 -900.00000m     -1.5607m  
 -800.00000m     -1.4163m  
 -700.00000m     -1.2783m  
 -600.00000m     -1.1458m  
 -500.00000m     -1.0178m  
 -400.00000m   -893.7069u  
 -300.00000m   -773.2064u  
 -200.00000m   -656.1394u  
 -100.00000m   -542.6715u  
    0.         -433.3094u  
  100.00000m   -328.9691u  
  200.00000m   -231.0913u  
  300.00000m   -142.0485u  
  400.00000m    -67.0249u  
  500.00000m    -18.1003u  
  600.00000m     -2.1416u  
  700.00000m   -157.9674n  
  800.00000m     -9.2902n  
  900.00000m   -484.6096p  
    1.00000     -23.8466p  
    1.10000    -3.837e-27  
    1.20000       3.3816p  
    1.30000       9.0062p  
    1.40000      21.7321p  
    1.50000      48.8452p  
    1.60000     103.3674p  
    1.70000     207.4450p  
    1.80000     391.8434p  
    1.90000     694.9536p  
    2.00000       1.2034n  
y

          ***** job concluded
 ******  
 *** ali abyaneh dec ca1- part1********                                         
  ******  dc transfer curves               tnom=  25.000 temp=  25.000          
 ******  

   *** source        0:vgs              =    1.9000        ***

x

        volt    current 3  
                    m2     
   -1.00000      -1.7128m  
 -900.00000m     -1.5607m  
 -800.00000m     -1.4163m  
 -700.00000m     -1.2783m  
 -600.00000m     -1.1458m  
 -500.00000m     -1.0178m  
 -400.00000m   -893.7069u  
 -300.00000m   -773.2064u  
 -200.00000m   -656.1394u  
 -100.00000m   -542.6715u  
    0.         -433.3094u  
  100.00000m   -328.9691u  
  200.00000m   -231.0913u  
  300.00000m   -142.0485u  
  400.00000m    -67.0249u  
  500.00000m    -18.1003u  
  600.00000m     -2.1416u  
  700.00000m   -157.9674n  
  800.00000m     -9.2902n  
  900.00000m   -484.6096p  
    1.00000     -23.8466p  
    1.10000    -3.837e-27  
    1.20000       3.3816p  
    1.30000       9.0062p  
    1.40000      21.7321p  
    1.50000      48.8452p  
    1.60000     103.3674p  
    1.70000     207.4450p  
    1.80000     391.8434p  
    1.90000     694.9536p  
    2.00000       1.2034n  
y

          ***** job concluded
 ******  
 *** ali abyaneh dec ca1- part1********                                         
  ******  dc transfer curves               tnom=  25.000 temp=  25.000          
 ******  

   *** source        0:vgs              =    2.0000        ***

x

        volt    current 3  
                    m2     
   -1.00000      -1.7128m  
 -900.00000m     -1.5607m  
 -800.00000m     -1.4163m  
 -700.00000m     -1.2783m  
 -600.00000m     -1.1458m  
 -500.00000m     -1.0178m  
 -400.00000m   -893.7069u  
 -300.00000m   -773.2064u  
 -200.00000m   -656.1394u  
 -100.00000m   -542.6715u  
    0.         -433.3094u  
  100.00000m   -328.9691u  
  200.00000m   -231.0913u  
  300.00000m   -142.0485u  
  400.00000m    -67.0249u  
  500.00000m    -18.1003u  
  600.00000m     -2.1416u  
  700.00000m   -157.9674n  
  800.00000m     -9.2902n  
  900.00000m   -484.6096p  
    1.00000     -23.8466p  
    1.10000    -3.837e-27  
    1.20000       3.3816p  
    1.30000       9.0062p  
    1.40000      21.7321p  
    1.50000      48.8452p  
    1.60000     103.3674p  
    1.70000     207.4450p  
    1.80000     391.8434p  
    1.90000     694.9536p  
    2.00000       1.2034n  
y
 
1****** HSPICE -- A-2008.03 32-BIT (Feb 26 2008) winnt ******                   
 ******  
 *** ali abyaneh dec ca1- part1********                                         
  ******  operating point information      tnom=  25.000 temp=  25.000          
 ******  
 ***** operating point status is voltage   simulation time is     0.     
    node    =voltage      node    =voltage      node    =voltage

 +0:d       =   0.      0:g       =   0.      0:vdd     =   1.1000 


          ***** job concluded
1****** HSPICE -- A-2008.03 32-BIT (Feb 26 2008) winnt ******                   
 ******  
 *** ali abyaneh dec ca1- part1********                                         
  ******  job statistics summary           tnom=  25.000 temp=  25.000          
 ******  

           total memory used        159 kbytes

  # nodes =       9 # elements=       6
  # diodes=       0 # bjts    =       0 # jfets   =       0 # mosfets =       1
  # va device =       0

    analysis           time    # points   tot. iter  conv.iter

    op point           0.02           1           4
    dc sweep           0.42         961        2698
    transient          0.06       20001          56          28 rev=         0
    readin             0.01
    errchk             0.00
    setup              0.02
    output             0.00
           total cpu time          1.00 seconds
           total elapsed time         1 seconds
               job started at  16:12:52 03/20/2018
               job ended   at  16:12:53 03/20/2018


 Init: hspice initialization file: C:\synopsys\Hspice_A-2008.03\hspice.ini
